Circuit: * C:\Users\Ayhan\Desktop\Bilkent EE\Bilkent EE 2017-2018 Spring\EEE202\Lab4\Software\Pi_Section.asc

.OP point found by inspection.

Date: Sun Apr 01 21:23:12 2018
Total elapsed time: 0.111 seconds.

tnom = 27
temp = 27
method = modified trap
totiter = 2106
traniter = 2106
tranpoints = 1054
accept = 1052
rejected = 2
matrix size = 4
fillins = 0
solver = Normal
Matrix Compiler1:       6 opcodes  0.3/[0.1]/0.2
Matrix Compiler2: off  [0.1]/0.3/0.2

