Circuit: * C:\Users\Ayhan\Desktop\Bilkent EE\Bilkent EE 2017-2018 Spring\EEE202\Lab4\Software\T_Section.asc

.OP point found by inspection.

Date: Sun Apr 01 20:57:04 2018
Total elapsed time: 0.357 seconds.

tnom = 27
temp = 27
method = modified trap
totiter = 2082
traniter = 2082
tranpoints = 1042
accept = 1042
rejected = 0
matrix size = 5
fillins = 0
solver = Normal
Matrix Compiler1: 150 bytes object code size  0.4/0.4/[0.3]
Matrix Compiler2: off  [0.2]/0.5/0.3

