Circuit: * C:\Users\Ayhan\Desktop\Bilkent EE\Bilkent EE 2017-2018 Spring\EEE202\Lab5\Software\LTSpiceDrafts\ButterworthLowPass.asc


Date: Wed Apr 18 02:22:05 2018
Total elapsed time: 0.230 seconds.

tnom = 27
temp = 27
method = trap
totiter = 0
traniter = 0
tranpoints = 0
accept = 0
rejected = 0
matrix size = 4
fillins = 1
solver = Normal

