Circuit: * C:\Users\Ayhan\Desktop\Bilkent EE\Bilkent EE 2017-2018 Spring\EEE202\Lab2\Software\Draft1.asc

.OP point found by inspection.

Date: Sun Mar 18 21:48:39 2018
Total elapsed time: 0.201 seconds.

tnom = 27
temp = 27
method = modified trap
totiter = 3036
traniter = 3036
tranpoints = 1519
accept = 1411
rejected = 108
matrix size = 7
fillins = 0
solver = Normal
Matrix Compiler1:      15 opcodes  0.5/[0.3]/0.3
Matrix Compiler2: off  [0.1]/0.3/0.2

