Circuit: * C:\Users\Ayhan\Desktop\Bilkent EE\Bilkent EE 2017-2018 Spring\EEE202\Lab2\Software\SoftwareLab2.asc

Direct Newton iteration failed to find .op point.  (Use ".option noopiter" to skip.)
Starting Gmin stepping
Gmin = 10
Gmin = 1.07374
Gmin = 0.115292
Gmin = 0.0123794
Gmin = 0.00132923
Gmin = 0.000142725
Gmin = 1.5325e-005
Gmin = 1.6455e-006
Gmin = 1.76685e-007
Gmin = 1.89714e-008
Gmin = 2.03704e-009
Gmin = 2.18725e-010
Gmin = 2.34854e-011
Gmin = 2.52173e-012
Gmin = 2.70769e-013
Gmin = 0
Gmin stepping succeeded in finding the operating point.


Date: Fri Mar 02 02:06:15 2018
Total elapsed time: 0.883 seconds.

tnom = 27
temp = 27
method = modified trap
totiter = 3652
traniter = 3173
tranpoints = 1397
accept = 1321
rejected = 76
matrix size = 189
fillins = 282
solver = Normal
Thread vector: 47.9/33.0[3] 15.9/13.4[3] 9.5/7.5[3] 5.3/20.6[1]  2592/500
Matrix Compiler1: 19.63 KB object code size  21.6/10.6/[5.6]
Matrix Compiler2: 19.01 KB object code size  22.1/24.9/[8.1]

