Circuit: * C:\Users\Ayhan\Desktop\Bilkent EE\Bilkent EE 2017-2018 Spring\EEE202\Lab1\SoftwareLab1_2.asc

.OP point found by inspection.

Date: Sun Feb 11 18:33:52 2018
Total elapsed time: 0.184 seconds.

tnom = 27
temp = 27
method = modified trap
totiter = 2158
traniter = 2158
tranpoints = 1080
accept = 1052
rejected = 28
matrix size = 8
fillins = 0
solver = Normal
Matrix Compiler1: 210 bytes object code size  0.5/0.3/[0.2]
Matrix Compiler2: 492 bytes object code size  0.3/0.6/[0.3]

